LAMMPS (27 May 2021)
# November 24 2019
# Author: Abdourahmane Diaw (diaw@lanl.gov)

# LAMMPS input script for radial distribution function and self-diffusion coefficient of Yukawa plasma
# Green-Kubo method via compute velocity flux and fix ave/correlate

# Potential parameters

variable       Gamma     file  Gamma.csv

# settings

variable       tproduction    equal   200000
variable       teq            equal   20000
variable       d              equal   floor(20000/100)
variable       Nfreq          equal   floor(200000/2)
variable       xlen           equal   2.339214400000001e-05*2
variable       prcoeff        equal   2.306881e-19
variable       ecrg           equal   4.803000e-10
variable       mass_p         equal   1.660000e-24
variable       Npar           equal   1024 #1024 2048 4000
variable       q              equal   4.803000e-10
variable       Imas           equal   1.660000e-24
variable       Z              equal   4.803e-10/4.803e-10
variable       mu             equal   1.66e-24/1.66e-24

# setup problem

units            cgs
atom_style       charge
dimension        3
boundary         p p p

region	        box block 0 4.6784288e-05 0 4.6784288e-05 0 4.6784288e-05  units box
create_box	    1 box
Created orthogonal box = (0.0000000 0.0000000 0.0000000) to (4.6784288e-05 4.6784288e-05 4.6784288e-05)
create_atoms	1 random 1024  257349 box
Created 1024 atoms
mass            1 1.66e-24
set     type 1 charge  4.803e-10
Setting atom values ...
  1024 settings made for charge

# Set the cut-off of the force

variable       dens      equal    count(all)/vol
variable       aws       equal    (3./(4*PI*9.99999731410227e+15))^(1./3.)
variable       rc        equal    5.0*2.87941216927844e-06
variable       dbin      equal    .1*1.43970608463922e-05

# Estimate the temperature from Gamma

variable       t      equal   2.306881e-19*1*1/(1.3808E-16*2.87941216927844e-06*0.5024431810323525)

# Estimate the timestep from the inverse plasma frequency

variable       wp        equal   1.32e3*1*sqrt(9.99999731410227e+15/1)
variable       dtstep    equal   1e-2/131999982273.074
variable       Tdamp     equal   100.*7.57575859314327e-14

# Define the potential

pair_style       coul/long      1.43970608463922e-05
pair_coeff       *   *
neighbor         1.43970608463922e-06        bin

# Neighbor list and Ewald

neigh_modify delay 0 every 1 check yes page 500000 one 50000
neigh_modify    delay 0 every 1

kspace_style     ewald          1.0e-4

# set particles velocities using a Maxwellian distribution

velocity        all create $t 102486 dist gaussian units box
velocity        all create 1154.79161405206 102486 dist gaussian units box

# Equilibration run

fix		 	1 all nvt temp 1154.79161405206 1154.79161405206  7.57575859314327e-12

thermo		 	    $d
thermo		 	    200
thermo_style		custom step pe ke etotal temp

timestep		  7.57575859314327e-14

run			  20000
Ewald initialization ...
  G vector (1/distance) = 252990.33
  estimated absolute RMS force accuracy = 4.1979503e-08
  estimated relative force accuracy = 1.8195968e-05
  KSpace vectors: actual max1d max3d = 3 1 13
                  kxmax kymax kzmax  = 1 1 1
  update every 1 steps, delay 0 steps, check yes
Step PotEng KinEng TotEng Temp
0 -2.606043e-11 2.4465508e-10 2.1859465e-10    1154.7916
Averages over the last 51 of 101 rows, steps 10000 to 20000:
PotEng KinEng TotEng Temp
-4.62027e-11 2.44887e-10 1.98684e-10 1155.88
Loop time of 8.07711 on 20 procs for 20000 steps with 1024 atoms

velocity    all scale $t
velocity    all scale 1154.79161405206

# remove the thermostat
unfix 1
reset_timestep 0
fix nveid  all  nve

# compute RDF

#compute     myRDF330 all rdf 1024

# self-diffusion calculation using in-built lammps vacf command

compute         vacf all vacf
fix             5    all vector 1 c_vacf[4]
# this is the reduced self-diffusion
variable        diff equal dt*trap(f_5)/3./(2.87941216927844e-06*2.87941216927844e-06*131999982273.074)
variable        D equal v_diff

# If you want more control over the value of the self-diffusion; use the trajectories and post process.
# Set the frequency of the dump
#dump 4a all custom 10000 dump.data id type vx vy vz

thermo_style custom step temp press ke pe etotal  c_vacf[4] v_diff
run 200000
Ewald initialization ...
  G vector (1/distance) = 252990.33
  estimated absolute RMS force accuracy = 4.1979503e-08
  estimated relative force accuracy = 1.8195968e-05
  KSpace vectors: actual max1d max3d = 3 1 13
                  kxmax kymax kzmax  = 1 1 1
Step Temp Press KinEng PotEng TotEng c_vacf[4] v_diff
0    1154.7916    2092.8678 2.4465508e-10 -4.562375e-11 1.9903133e-10 2.878566e+11            0
Averages over the last 501 of 1001 rows, steps 100000 to 200000:
Temp Press KinEng PotEng TotEng c_vacf[4] v_diff
1157.58 2093.55 2.45246e-10 -4.62066e-11 1.9904e-10 -1.12381e+09 7.66009
Loop time of 78.8129 on 20 procs for 200000 steps with 1024 atoms

print "D=$D" append coefficients.csv
D=6.30016954684929
print "Simulation succesfully done!"
Simulation succesfully done!

clear
next Gamma
#next Npar
jump in.rdf_selfdiffusion
# November 24 2019
# Author: Abdourahmane Diaw (diaw@lanl.gov)

# LAMMPS input script for radial distribution function and self-diffusion coefficient of Yukawa plasma
# Green-Kubo method via compute velocity flux and fix ave/correlate

# Potential parameters

variable       Gamma     file  Gamma.csv

# settings

variable       tproduction    equal   200000
variable       teq            equal   20000
variable       d              equal   floor(20000/100)
variable       Nfreq          equal   floor(200000/2)
variable       xlen           equal   2.339214400000001e-05*2
variable       prcoeff        equal   2.306881e-19
variable       ecrg           equal   4.803000e-10
variable       mass_p         equal   1.660000e-24
variable       Npar           equal   1024 #1024 2048 4000
variable       q              equal   4.803000e-10
variable       Imas           equal   1.660000e-24
variable       Z              equal   4.803e-10/4.803e-10
variable       mu             equal   1.66e-24/1.66e-24

# setup problem

units            cgs
atom_style       charge
dimension        3
boundary         p p p

region	        box block 0 4.6784288e-05 0 4.6784288e-05 0 4.6784288e-05  units box
create_box	    1 box
Created orthogonal box = (0.0000000 0.0000000 0.0000000) to (4.6784288e-05 4.6784288e-05 4.6784288e-05)
create_atoms	1 random 1024  257349 box
Created 1024 atoms
mass            1 1.66e-24
set     type 1 charge  4.803e-10
Setting atom values ...
  1024 settings made for charge

# Set the cut-off of the force

variable       dens      equal    count(all)/vol
variable       aws       equal    (3./(4*PI*9.99999731410227e+15))^(1./3.)
variable       rc        equal    5.0*2.87941216927844e-06
variable       dbin      equal    .1*1.43970608463922e-05

# Estimate the temperature from Gamma

variable       t      equal   2.306881e-19*1*1/(1.3808E-16*2.87941216927844e-06*1.0062766407797334)

# Estimate the timestep from the inverse plasma frequency

variable       wp        equal   1.32e3*1*sqrt(9.99999731410227e+15/1)
variable       dtstep    equal   1e-2/131999982273.074
variable       Tdamp     equal   100.*7.57575859314327e-14

# Define the potential

pair_style       coul/long      1.43970608463922e-05
pair_coeff       *   *
neighbor         1.43970608463922e-06        bin

# Neighbor list and Ewald

neigh_modify delay 0 every 1 check yes page 500000 one 50000
neigh_modify    delay 0 every 1

kspace_style     ewald          1.0e-4

# set particles velocities using a Maxwellian distribution

velocity        all create $t 102486 dist gaussian units box
velocity        all create 576.598073015197 102486 dist gaussian units box

# Equilibration run

fix		 	1 all nvt temp 576.598073015197 576.598073015197  7.57575859314327e-12

thermo		 	    $d
thermo		 	    200
thermo_style		custom step pe ke etotal temp

timestep		  7.57575859314327e-14

run			  20000
Ewald initialization ...
  G vector (1/distance) = 252990.33
  estimated absolute RMS force accuracy = 4.1979503e-08
  estimated relative force accuracy = 1.8195968e-05
  KSpace vectors: actual max1d max3d = 3 1 13
                  kxmax kymax kzmax  = 1 1 1
  update every 1 steps, delay 0 steps, check yes
Step PotEng KinEng TotEng Temp
0 -2.606043e-11 1.2215853e-10 9.6098101e-11    576.59807
Averages over the last 51 of 101 rows, steps 10000 to 20000:
PotEng KinEng TotEng Temp
-5.15627e-11 1.22309e-10 7.07467e-11 577.31
Loop time of 7.65869 on 20 procs for 20000 steps with 1024 atoms

velocity    all scale $t
velocity    all scale 576.598073015197

# remove the thermostat
unfix 1
reset_timestep 0
fix nveid  all  nve

# compute RDF

#compute     myRDF330 all rdf 1024

# self-diffusion calculation using in-built lammps vacf command

compute         vacf all vacf
fix             5    all vector 1 c_vacf[4]
# this is the reduced self-diffusion
variable        diff equal dt*trap(f_5)/3./(2.87941216927844e-06*2.87941216927844e-06*131999982273.074)
variable        D equal v_diff

# If you want more control over the value of the self-diffusion; use the trajectories and post process.
# Set the frequency of the dump
#dump 4a all custom 10000 dump.data id type vx vy vz

thermo_style custom step temp press ke pe etotal  c_vacf[4] v_diff
run 200000
Ewald initialization ...
  G vector (1/distance) = 252990.33
  estimated absolute RMS force accuracy = 4.1979503e-08
  estimated relative force accuracy = 1.8195968e-05
  KSpace vectors: actual max1d max3d = 3 1 13
                  kxmax kymax kzmax  = 1 1 1
Step Temp Press KinEng PotEng TotEng c_vacf[4] v_diff
0    576.59807    1257.4083 1.2215853e-10 -5.2535952e-11 6.9622579e-11 1.4372945e+11            0
Averages over the last 501 of 1001 rows, steps 100000 to 200000:
Temp Press KinEng PotEng TotEng c_vacf[4] v_diff
572.356 1255.19 1.2126e-10 -5.16372e-11 6.96226e-11 -1.38642e+08 3.13323
Loop time of 76.4403 on 20 procs for 200000 steps with 1024 atoms

print "D=$D" append coefficients.csv
D=2.7214669191149
print "Simulation succesfully done!"
Simulation succesfully done!

clear
next Gamma
#next Npar
jump in.rdf_selfdiffusion
# November 24 2019
# Author: Abdourahmane Diaw (diaw@lanl.gov)

# LAMMPS input script for radial distribution function and self-diffusion coefficient of Yukawa plasma
# Green-Kubo method via compute velocity flux and fix ave/correlate

# Potential parameters

variable       Gamma     file  Gamma.csv

# settings

variable       tproduction    equal   200000
variable       teq            equal   20000
variable       d              equal   floor(20000/100)
variable       Nfreq          equal   floor(200000/2)
variable       xlen           equal   2.339214400000001e-05*2
variable       prcoeff        equal   2.306881e-19
variable       ecrg           equal   4.803000e-10
variable       mass_p         equal   1.660000e-24
variable       Npar           equal   1024 #1024 2048 4000
variable       q              equal   4.803000e-10
variable       Imas           equal   1.660000e-24
variable       Z              equal   4.803e-10/4.803e-10
variable       mu             equal   1.66e-24/1.66e-24

# setup problem

units            cgs
atom_style       charge
dimension        3
boundary         p p p

region	        box block 0 4.6784288e-05 0 4.6784288e-05 0 4.6784288e-05  units box
create_box	    1 box
Created orthogonal box = (0.0000000 0.0000000 0.0000000) to (4.6784288e-05 4.6784288e-05 4.6784288e-05)
create_atoms	1 random 1024  257349 box
Created 1024 atoms
mass            1 1.66e-24
set     type 1 charge  4.803e-10
Setting atom values ...
  1024 settings made for charge

# Set the cut-off of the force

variable       dens      equal    count(all)/vol
variable       aws       equal    (3./(4*PI*9.99999731410227e+15))^(1./3.)
variable       rc        equal    5.0*2.87941216927844e-06
variable       dbin      equal    .1*1.43970608463922e-05

# Estimate the temperature from Gamma

variable       t      equal   2.306881e-19*1*1/(1.3808E-16*2.87941216927844e-06*10)

# Estimate the timestep from the inverse plasma frequency

variable       wp        equal   1.32e3*1*sqrt(9.99999731410227e+15/1)
variable       dtstep    equal   1e-2/131999982273.074
variable       Tdamp     equal   100.*7.57575859314327e-14

# Define the potential

pair_style       coul/long      1.43970608463922e-05
pair_coeff       *   *
neighbor         1.43970608463922e-06        bin

# Neighbor list and Ewald

neigh_modify delay 0 every 1 check yes page 500000 one 50000
neigh_modify    delay 0 every 1

kspace_style     ewald          1.0e-4

# set particles velocities using a Maxwellian distribution

velocity        all create $t 102486 dist gaussian units box
velocity        all create 58.0217171993799 102486 dist gaussian units box

# Equilibration run

fix		 	1 all nvt temp 58.0217171993799 58.0217171993799  7.57575859314327e-12

thermo		 	    $d
thermo		 	    200
thermo_style		custom step pe ke etotal temp

timestep		  7.57575859314327e-14

run			  20000
Ewald initialization ...
  G vector (1/distance) = 252990.33
  estimated absolute RMS force accuracy = 4.1979503e-08
  estimated relative force accuracy = 1.8195968e-05
  KSpace vectors: actual max1d max3d = 3 1 13
                  kxmax kymax kzmax  = 1 1 1
  update every 1 steps, delay 0 steps, check yes
Step PotEng KinEng TotEng Temp
0 -2.606043e-11 1.2292528e-11 -1.3767902e-11    58.021717
Averages over the last 51 of 101 rows, steps 10000 to 20000:
PotEng KinEng TotEng Temp
-6.60495e-11 1.2277e-11 -5.37725e-11 57.9485
Loop time of 6.82977 on 20 procs for 20000 steps with 1024 atoms

velocity    all scale $t
velocity    all scale 58.0217171993799

# remove the thermostat
unfix 1
reset_timestep 0
fix nveid  all  nve

# compute RDF

#compute     myRDF330 all rdf 1024

# self-diffusion calculation using in-built lammps vacf command

compute         vacf all vacf
fix             5    all vector 1 c_vacf[4]
# this is the reduced self-diffusion
variable        diff equal dt*trap(f_5)/3./(2.87941216927844e-06*2.87941216927844e-06*131999982273.074)
variable        D equal v_diff

# If you want more control over the value of the self-diffusion; use the trajectories and post process.
# Set the frequency of the dump
#dump 4a all custom 10000 dump.data id type vx vy vz

thermo_style custom step temp press ke pe etotal  c_vacf[4] v_diff
run 200000
Ewald initialization ...
  G vector (1/distance) = 252990.33
  estimated absolute RMS force accuracy = 4.1979503e-08
  estimated relative force accuracy = 1.8195968e-05
  KSpace vectors: actual max1d max3d = 3 1 13
                  kxmax kymax kzmax  = 1 1 1
Step Temp Press KinEng PotEng TotEng c_vacf[4] v_diff
0    58.021717    452.11997 1.2292528e-11 -6.6378368e-11 -5.408584e-11 1.4463158e+10            0
Averages over the last 501 of 1001 rows, steps 100000 to 200000:
Temp Press KinEng PotEng TotEng c_vacf[4] v_diff
57.0166 453.025 1.20796e-11 -6.61654e-11 -5.40858e-11 -1.20706e+07 0.12522
Loop time of 68.7645 on 20 procs for 200000 steps with 1024 atoms

print "D=$D" append coefficients.csv
D=0.102337712596083
print "Simulation succesfully done!"
Simulation succesfully done!

clear
next Gamma
#next Npar
jump in.rdf_selfdiffusion
# November 24 2019
# Author: Abdourahmane Diaw (diaw@lanl.gov)

# LAMMPS input script for radial distribution function and self-diffusion coefficient of Yukawa plasma
# Green-Kubo method via compute velocity flux and fix ave/correlate

# Potential parameters

variable       Gamma     file  Gamma.csv

# settings

variable       tproduction    equal   200000
variable       teq            equal   20000
variable       d              equal   floor(20000/100)
variable       Nfreq          equal   floor(200000/2)
variable       xlen           equal   2.339214400000001e-05*2
variable       prcoeff        equal   2.306881e-19
variable       ecrg           equal   4.803000e-10
variable       mass_p         equal   1.660000e-24
variable       Npar           equal   1024 #1024 2048 4000
variable       q              equal   4.803000e-10
variable       Imas           equal   1.660000e-24
variable       Z              equal   4.803e-10/4.803e-10
variable       mu             equal   1.66e-24/1.66e-24

# setup problem

units            cgs
atom_style       charge
dimension        3
boundary         p p p

region	        box block 0 4.6784288e-05 0 4.6784288e-05 0 4.6784288e-05  units box
create_box	    1 box
Created orthogonal box = (0.0000000 0.0000000 0.0000000) to (4.6784288e-05 4.6784288e-05 4.6784288e-05)
create_atoms	1 random 1024  257349 box
Created 1024 atoms
mass            1 1.66e-24
set     type 1 charge  4.803e-10
Setting atom values ...
  1024 settings made for charge

# Set the cut-off of the force

variable       dens      equal    count(all)/vol
variable       aws       equal    (3./(4*PI*9.99999731410227e+15))^(1./3.)
variable       rc        equal    5.0*2.87941216927844e-06
variable       dbin      equal    .1*1.43970608463922e-05

# Estimate the temperature from Gamma

variable       t      equal   2.306881e-19*1*1/(1.3808E-16*2.87941216927844e-06*20.02767036686959)

# Estimate the timestep from the inverse plasma frequency

variable       wp        equal   1.32e3*1*sqrt(9.99999731410227e+15/1)
variable       dtstep    equal   1e-2/131999982273.074
variable       Tdamp     equal   100.*7.57575859314327e-14

# Define the potential

pair_style       coul/long      1.43970608463922e-05
pair_coeff       *   *
neighbor         1.43970608463922e-06        bin

# Neighbor list and Ewald

neigh_modify delay 0 every 1 check yes page 500000 one 50000
neigh_modify    delay 0 every 1

kspace_style     ewald          1.0e-4

# set particles velocities using a Maxwellian distribution

velocity        all create $t 102486 dist gaussian units box
velocity        all create 28.970776998288 102486 dist gaussian units box

# Equilibration run

fix		 	1 all nvt temp 28.970776998288 28.970776998288  7.57575859314327e-12

thermo		 	    $d
thermo		 	    200
thermo_style		custom step pe ke etotal temp

timestep		  7.57575859314327e-14

run			  20000
Ewald initialization ...
  G vector (1/distance) = 252990.33
  estimated absolute RMS force accuracy = 4.1979503e-08
  estimated relative force accuracy = 1.8195968e-05
  KSpace vectors: actual max1d max3d = 3 1 13
                  kxmax kymax kzmax  = 1 1 1
  update every 1 steps, delay 0 steps, check yes
Step PotEng KinEng TotEng Temp
0 -2.606043e-11 6.1377721e-12 -1.9922658e-11    28.970777
Averages over the last 51 of 101 rows, steps 10000 to 20000:
PotEng KinEng TotEng Temp
-6.8561e-11 6.12364e-12 -6.24373e-11 28.9041
Loop time of 6.6848 on 20 procs for 20000 steps with 1024 atoms

velocity    all scale $t
velocity    all scale 28.970776998288

# remove the thermostat
unfix 1
reset_timestep 0
fix nveid  all  nve

# compute RDF

#compute     myRDF330 all rdf 1024

# self-diffusion calculation using in-built lammps vacf command

compute         vacf all vacf
fix             5    all vector 1 c_vacf[4]
# this is the reduced self-diffusion
variable        diff equal dt*trap(f_5)/3./(2.87941216927844e-06*2.87941216927844e-06*131999982273.074)
variable        D equal v_diff

# If you want more control over the value of the self-diffusion; use the trajectories and post process.
# Set the frequency of the dump
#dump 4a all custom 10000 dump.data id type vx vy vz

thermo_style custom step temp press ke pe etotal  c_vacf[4] v_diff
run 200000
Ewald initialization ...
  G vector (1/distance) = 252990.33
  estimated absolute RMS force accuracy = 4.1979503e-08
  estimated relative force accuracy = 1.8195968e-05
  KSpace vectors: actual max1d max3d = 3 1 13
                  kxmax kymax kzmax  = 1 1 1
Step Temp Press KinEng PotEng TotEng c_vacf[4] v_diff
0    28.970777    397.62125 6.1377721e-12 -6.8623345e-11 -6.2485573e-11 7.221588e+09            0
Averages over the last 501 of 1001 rows, steps 100000 to 200000:
Temp Press KinEng PotEng TotEng c_vacf[4] v_diff
28.9257 398.058 6.12821e-12 -6.86138e-11 -6.24856e-11 1.08919e+07 0.0946023
Loop time of 67.4094 on 20 procs for 200000 steps with 1024 atoms

print "D=$D" append coefficients.csv
D=0.106723330240336
print "Simulation succesfully done!"
Simulation succesfully done!

clear
next Gamma
#next Npar
jump in.rdf_selfdiffusion
# November 24 2019
# Author: Abdourahmane Diaw (diaw@lanl.gov)

# LAMMPS input script for radial distribution function and self-diffusion coefficient of Yukawa plasma
# Green-Kubo method via compute velocity flux and fix ave/correlate

# Potential parameters

variable       Gamma     file  Gamma.csv

# settings

variable       tproduction    equal   200000
variable       teq            equal   20000
variable       d              equal   floor(20000/100)
variable       Nfreq          equal   floor(200000/2)
variable       xlen           equal   2.339214400000001e-05*2
variable       prcoeff        equal   2.306881e-19
variable       ecrg           equal   4.803000e-10
variable       mass_p         equal   1.660000e-24
variable       Npar           equal   1024 #1024 2048 4000
variable       q              equal   4.803000e-10
variable       Imas           equal   1.660000e-24
variable       Z              equal   4.803e-10/4.803e-10
variable       mu             equal   1.66e-24/1.66e-24

# setup problem

units            cgs
atom_style       charge
dimension        3
boundary         p p p

region	        box block 0 4.6784288e-05 0 4.6784288e-05 0 4.6784288e-05  units box
create_box	    1 box
Created orthogonal box = (0.0000000 0.0000000 0.0000000) to (4.6784288e-05 4.6784288e-05 4.6784288e-05)
create_atoms	1 random 1024  257349 box
Created 1024 atoms
mass            1 1.66e-24
set     type 1 charge  4.803e-10
Setting atom values ...
  1024 settings made for charge

# Set the cut-off of the force

variable       dens      equal    count(all)/vol
variable       aws       equal    (3./(4*PI*9.99999731410227e+15))^(1./3.)
variable       rc        equal    5.0*2.87941216927844e-06
variable       dbin      equal    .1*1.43970608463922e-05

# Estimate the temperature from Gamma

variable       t      equal   2.306881e-19*1*1/(1.3808E-16*2.87941216927844e-06*40.110758032398586)

# Estimate the timestep from the inverse plasma frequency

variable       wp        equal   1.32e3*1*sqrt(9.99999731410227e+15/1)
variable       dtstep    equal   1e-2/131999982273.074
variable       Tdamp     equal   100.*7.57575859314327e-14

# Define the potential

pair_style       coul/long      1.43970608463922e-05
pair_coeff       *   *
neighbor         1.43970608463922e-06        bin

# Neighbor list and Ewald

neigh_modify delay 0 every 1 check yes page 500000 one 50000
neigh_modify    delay 0 every 1

kspace_style     ewald          1.0e-4

# set particles velocities using a Maxwellian distribution

velocity        all create $t 102486 dist gaussian units box
velocity        all create 14.4653753869508 102486 dist gaussian units box

# Equilibration run

fix		 	1 all nvt temp 14.4653753869508 14.4653753869508  7.57575859314327e-12

thermo		 	    $d
thermo		 	    200
thermo_style		custom step pe ke etotal temp

timestep		  7.57575859314327e-14

run			  20000
Ewald initialization ...
  G vector (1/distance) = 252990.33
  estimated absolute RMS force accuracy = 4.1979503e-08
  estimated relative force accuracy = 1.8195968e-05
  KSpace vectors: actual max1d max3d = 3 1 13
                  kxmax kymax kzmax  = 1 1 1
  update every 1 steps, delay 0 steps, check yes
Step PotEng KinEng TotEng Temp
0 -2.606043e-11 3.0646461e-12 -2.2995784e-11    14.465375
Averages over the last 51 of 101 rows, steps 10000 to 20000:
PotEng KinEng TotEng Temp
-7.03418e-11 3.05797e-12 -6.72838e-11 14.4339
Loop time of 6.69626 on 20 procs for 20000 steps with 1024 atoms

velocity    all scale $t
velocity    all scale 14.4653753869508

# remove the thermostat
unfix 1
reset_timestep 0
fix nveid  all  nve

# compute RDF

#compute     myRDF330 all rdf 1024

# self-diffusion calculation using in-built lammps vacf command

compute         vacf all vacf
fix             5    all vector 1 c_vacf[4]
# this is the reduced self-diffusion
variable        diff equal dt*trap(f_5)/3./(2.87941216927844e-06*2.87941216927844e-06*131999982273.074)
variable        D equal v_diff

# If you want more control over the value of the self-diffusion; use the trajectories and post process.
# Set the frequency of the dump
#dump 4a all custom 10000 dump.data id type vx vy vz

thermo_style custom step temp press ke pe etotal  c_vacf[4] v_diff
run 200000
Ewald initialization ...
  G vector (1/distance) = 252990.33
  estimated absolute RMS force accuracy = 4.1979503e-08
  estimated relative force accuracy = 1.8195968e-05
  KSpace vectors: actual max1d max3d = 3 1 13
                  kxmax kymax kzmax  = 1 1 1
Step Temp Press KinEng PotEng TotEng c_vacf[4] v_diff
0    14.465375    366.57461 3.0646461e-12 -7.0292892e-11 -6.7228246e-11 3.6058053e+09            0
Averages over the last 501 of 1001 rows, steps 100000 to 200000:
Temp Press KinEng PotEng TotEng c_vacf[4] v_diff
14.6673 367.05 3.10744e-12 -7.03357e-11 -6.72282e-11 -5.36167e+06 0.0309615
Loop time of 66.9528 on 20 procs for 200000 steps with 1024 atoms

print "D=$D" append coefficients.csv
D=0.0278089471259915
print "Simulation succesfully done!"
Simulation succesfully done!

clear
next Gamma
#next Npar
jump in.rdf_selfdiffusion
# November 24 2019
# Author: Abdourahmane Diaw (diaw@lanl.gov)

# LAMMPS input script for radial distribution function and self-diffusion coefficient of Yukawa plasma
# Green-Kubo method via compute velocity flux and fix ave/correlate

# Potential parameters

variable       Gamma     file  Gamma.csv

# settings

variable       tproduction    equal   200000
variable       teq            equal   20000
variable       d              equal   floor(20000/100)
variable       Nfreq          equal   floor(200000/2)
variable       xlen           equal   2.339214400000001e-05*2
variable       prcoeff        equal   2.306881e-19
variable       ecrg           equal   4.803000e-10
variable       mass_p         equal   1.660000e-24
variable       Npar           equal   1024 #1024 2048 4000
variable       q              equal   4.803000e-10
variable       Imas           equal   1.660000e-24
variable       Z              equal   4.803e-10/4.803e-10
variable       mu             equal   1.66e-24/1.66e-24

# setup problem

units            cgs
atom_style       charge
dimension        3
boundary         p p p

region	        box block 0 4.6784288e-05 0 4.6784288e-05 0 4.6784288e-05  units box
create_box	    1 box
Created orthogonal box = (0.0000000 0.0000000 0.0000000) to (4.6784288e-05 4.6784288e-05 4.6784288e-05)
create_atoms	1 random 1024  257349 box
Created 1024 atoms
mass            1 1.66e-24
set     type 1 charge  4.803e-10
Setting atom values ...
  1024 settings made for charge

# Set the cut-off of the force

variable       dens      equal    count(all)/vol
variable       aws       equal    (3./(4*PI*9.99999731410227e+15))^(1./3.)
variable       rc        equal    5.0*2.87941216927844e-06
variable       dbin      equal    .1*1.43970608463922e-05

# Estimate the temperature from Gamma

variable       t      equal   2.306881e-19*1*1/(1.3808E-16*2.87941216927844e-06*79.3334830151238)

# Estimate the timestep from the inverse plasma frequency

variable       wp        equal   1.32e3*1*sqrt(9.99999731410227e+15/1)
variable       dtstep    equal   1e-2/131999982273.074
variable       Tdamp     equal   100.*7.57575859314327e-14

# Define the potential

pair_style       coul/long      1.43970608463922e-05
pair_coeff       *   *
neighbor         1.43970608463922e-06        bin

# Neighbor list and Ewald

neigh_modify delay 0 every 1 check yes page 500000 one 50000
neigh_modify    delay 0 every 1

kspace_style     ewald          1.0e-4

# set particles velocities using a Maxwellian distribution

velocity        all create $t 102486 dist gaussian units box
velocity        all create 7.31364803286387 102486 dist gaussian units box

# Equilibration run

fix		 	1 all nvt temp 7.31364803286387 7.31364803286387  7.57575859314327e-12

thermo		 	    $d
thermo		 	    200
thermo_style		custom step pe ke etotal temp

timestep		  7.57575859314327e-14

run			  20000
Ewald initialization ...
  G vector (1/distance) = 252990.33
  estimated absolute RMS force accuracy = 4.1979503e-08
  estimated relative force accuracy = 1.8195968e-05
  KSpace vectors: actual max1d max3d = 3 1 13
                  kxmax kymax kzmax  = 1 1 1
  update every 1 steps, delay 0 steps, check yes
Step PotEng KinEng TotEng Temp
0 -2.606043e-11 1.5494754e-12 -2.4510955e-11     7.313648
Averages over the last 51 of 101 rows, steps 10000 to 20000:
PotEng KinEng TotEng Temp
-7.15303e-11 1.5478e-12 -6.99825e-11 7.30574
Loop time of 6.60361 on 20 procs for 20000 steps with 1024 atoms

velocity    all scale $t
velocity    all scale 7.31364803286387

# remove the thermostat
unfix 1
reset_timestep 0
fix nveid  all  nve

# compute RDF

#compute     myRDF330 all rdf 1024

# self-diffusion calculation using in-built lammps vacf command

compute         vacf all vacf
fix             5    all vector 1 c_vacf[4]
# this is the reduced self-diffusion
variable        diff equal dt*trap(f_5)/3./(2.87941216927844e-06*2.87941216927844e-06*131999982273.074)
variable        D equal v_diff

# If you want more control over the value of the self-diffusion; use the trajectories and post process.
# Set the frequency of the dump
#dump 4a all custom 10000 dump.data id type vx vy vz

thermo_style custom step temp press ke pe etotal  c_vacf[4] v_diff
run 200000
Ewald initialization ...
  G vector (1/distance) = 252990.33
  estimated absolute RMS force accuracy = 4.1979503e-08
  estimated relative force accuracy = 1.8195968e-05
  KSpace vectors: actual max1d max3d = 3 1 13
                  kxmax kymax kzmax  = 1 1 1
Step Temp Press KinEng PotEng TotEng c_vacf[4] v_diff
0     7.313648    349.40326 1.5494754e-12 -7.1479333e-11 -6.9929857e-11 1.8230838e+09            0
Averages over the last 501 of 1001 rows, steps 100000 to 200000:
Temp Press KinEng PotEng TotEng c_vacf[4] v_diff
7.444 349.547 1.57709e-12 -7.15069e-11 -6.99299e-11 1.25417e+06 0.0150987
Loop time of 66.347 on 20 procs for 200000 steps with 1024 atoms

print "D=$D" append coefficients.csv
D=0.0179516419126528
print "Simulation succesfully done!"
Simulation succesfully done!

clear
next Gamma
#next Npar
jump in.rdf_selfdiffusion
# November 24 2019
# Author: Abdourahmane Diaw (diaw@lanl.gov)

# LAMMPS input script for radial distribution function and self-diffusion coefficient of Yukawa plasma
# Green-Kubo method via compute velocity flux and fix ave/correlate

# Potential parameters

variable       Gamma     file  Gamma.csv

# settings

variable       tproduction    equal   200000
variable       teq            equal   20000
variable       d              equal   floor(20000/100)
variable       Nfreq          equal   floor(200000/2)
variable       xlen           equal   2.339214400000001e-05*2
variable       prcoeff        equal   2.306881e-19
variable       ecrg           equal   4.803000e-10
variable       mass_p         equal   1.660000e-24
variable       Npar           equal   1024 #1024 2048 4000
variable       q              equal   4.803000e-10
variable       Imas           equal   1.660000e-24
variable       Z              equal   4.803e-10/4.803e-10
variable       mu             equal   1.66e-24/1.66e-24

# setup problem

units            cgs
atom_style       charge
dimension        3
boundary         p p p

region	        box block 0 4.6784288e-05 0 4.6784288e-05 0 4.6784288e-05  units box
create_box	    1 box
Created orthogonal box = (0.0000000 0.0000000 0.0000000) to (4.6784288e-05 4.6784288e-05 4.6784288e-05)
create_atoms	1 random 1024  257349 box
Created 1024 atoms
mass            1 1.66e-24
set     type 1 charge  4.803e-10
Setting atom values ...
  1024 settings made for charge

# Set the cut-off of the force

variable       dens      equal    count(all)/vol
variable       aws       equal    (3./(4*PI*9.99999731410227e+15))^(1./3.)
variable       rc        equal    5.0*2.87941216927844e-06
variable       dbin      equal    .1*1.43970608463922e-05

# Estimate the temperature from Gamma

variable       t      equal   2.306881e-19*1*1/(1.3808E-16*2.87941216927844e-06*96.91991921659836)

# Estimate the timestep from the inverse plasma frequency

variable       wp        equal   1.32e3*1*sqrt(9.99999731410227e+15/1)
variable       dtstep    equal   1e-2/131999982273.074
variable       Tdamp     equal   100.*7.57575859314327e-14

# Define the potential

pair_style       coul/long      1.43970608463922e-05
pair_coeff       *   *
neighbor         1.43970608463922e-06        bin

# Neighbor list and Ewald

neigh_modify delay 0 every 1 check yes page 500000 one 50000
neigh_modify    delay 0 every 1

kspace_style     ewald          1.0e-4

# set particles velocities using a Maxwellian distribution

velocity        all create $t 102486 dist gaussian units box
velocity        all create 5.9865626868417 102486 dist gaussian units box

# Equilibration run

fix		 	1 all nvt temp 5.9865626868417 5.9865626868417  7.57575859314327e-12

thermo		 	    $d
thermo		 	    200
thermo_style		custom step pe ke etotal temp

timestep		  7.57575859314327e-14

run			  20000
Ewald initialization ...
  G vector (1/distance) = 252990.33
  estimated absolute RMS force accuracy = 4.1979503e-08
  estimated relative force accuracy = 1.8195968e-05
  KSpace vectors: actual max1d max3d = 3 1 13
                  kxmax kymax kzmax  = 1 1 1
  update every 1 steps, delay 0 steps, check yes
Step PotEng KinEng TotEng Temp
0 -2.606043e-11 1.268318e-12 -2.4792112e-11    5.9865627
Averages over the last 51 of 101 rows, steps 10000 to 20000:
PotEng KinEng TotEng Temp
-7.17963e-11 1.26728e-12 -7.0529e-11 5.98166
Loop time of 6.65173 on 20 procs for 20000 steps with 1024 atoms

velocity    all scale $t
velocity    all scale 5.9865626868417

# remove the thermostat
unfix 1
reset_timestep 0
fix nveid  all  nve

# compute RDF

#compute     myRDF330 all rdf 1024

# self-diffusion calculation using in-built lammps vacf command

compute         vacf all vacf
fix             5    all vector 1 c_vacf[4]
# this is the reduced self-diffusion
variable        diff equal dt*trap(f_5)/3./(2.87941216927844e-06*2.87941216927844e-06*131999982273.074)
variable        D equal v_diff

# If you want more control over the value of the self-diffusion; use the trajectories and post process.
# Set the frequency of the dump
#dump 4a all custom 10000 dump.data id type vx vy vz

thermo_style custom step temp press ke pe etotal  c_vacf[4] v_diff
run 200000
Ewald initialization ...
  G vector (1/distance) = 252990.33
  estimated absolute RMS force accuracy = 4.1979503e-08
  estimated relative force accuracy = 1.8195968e-05
  KSpace vectors: actual max1d max3d = 3 1 13
                  kxmax kymax kzmax  = 1 1 1
Step Temp Press KinEng PotEng TotEng c_vacf[4] v_diff
0    5.9865627    345.66257 1.268318e-12 -7.1793642e-11 -7.0525324e-11 1.4922793e+09            0
Averages over the last 501 of 1001 rows, steps 100000 to 200000:
Temp Press KinEng PotEng TotEng c_vacf[4] v_diff
5.99923 345.751 1.271e-12 -7.17963e-11 -7.05253e-11 -4.45062e+06 0.00259358
Loop time of 66.1336 on 20 procs for 200000 steps with 1024 atoms

print "D=$D" append coefficients.csv
D=-0.00200115952928359
print "Simulation succesfully done!"
Simulation succesfully done!

clear
next Gamma
#next Npar
jump in.rdf_selfdiffusion
